<?xml version="1.0" encoding="UTF-8"?>
<!DOCTYPE routes SYSTEM "smpp_routes.dtd">

<routes>
</routes>