<?xml version="1.0" encoding="iso-8859-1"?>

<!DOCTYPE http_routes SYSTEM "http_routes.dtd">

<routes>
</routes>

