<?xml version="1.0" encoding="WINDOWS-1251"?>
<!DOCTYPE routes SYSTEM "smpp_routes.dtd">

<routes>
</routes>